<?xml version="1.0" encoding="UTF-8"?>

<routes xmlns:xsi="http://www.w3.org/2001/XMLSchema-instance" xsi:noNamespaceSchemaLocation="http://sumo.dlr.de/xsd/routes_file.xsd">
	<vType id="passenger" vClass="passenger"/>
    <vType id="ambulance" vClass="emergency" speedFactor="2" maxSpeed="170" accel="4" color="1,1,1"/>

    <route id="horizontal0" edges="-23757213#5 -23757213#4 -23757213#3 -23757213#1"/>
    <route id="horizontal1" edges="23757213#1 23757213#3 23757213#4 23757213#5"/>
    <route id="vertical0" edges="-23464391#1 -23464391#0 -23758704#2"/>
    <route id="vertical1" edges="23758704#2 23464391#0 23464391#1"/>
    <route id="amuPath0" edges="23758704#2 23757213#3 23757213#4 23464390#0 -23516452#0 23464391#1"/>
    <route id="amuPath1" edges="-23464390#1 -23464390#0 23757213#5"/>
   
    <flow id="horitonzalFlow0" type="passenger" route="horizontal0" begin="0" period="3" number="10"/>
    <flow id="horitonzalFlow1" type="passenger" route="horizontal1" begin="0" period="3" number="10"/>
    <flow id="verticalFlow0" type="passenger" route="vertical0" begin="0" period="3" number="10"/>
    <flow id="verticalFlow1" type="passenger" route="vertical1" begin="0" period="3" number="10"/>
    <flow id="amuFlow" type="passenger" route="amuPath0" begin="0" period="1" number="5"/>
    
    <vehicle id="0" depart="0.00" type="passenger">
        <route edges="-23464390#0 23464390#0 -23516452#0 -23464391#0"/>
    </vehicle>
    <vehicle id="2" depart="4.00" type="passenger">
        <route edges="-23464390#1 -23464390#0 23757213#5"/>
    </vehicle>
    <vehicle id="3" depart="4.00" type="passenger">
        <route edges="-23758703 23757213#4 23464390#0 23516452#1"/>
    </vehicle>
    <vehicle id="5" depart="6.00" type="passenger">
        <route edges="-23464390#1 -23464390#0 23757213#5"/>
    </vehicle>
   	<vehicle id="6" depart="6.00" type="passenger">
        <route edges="-23758703 23757213#4 23464390#0 23516452#1"/>
    </vehicle>
    <vehicle id="7" depart="6.00" type="passenger">
        <route edges="-23757213#5 -23757213#4 -23757213#3 23464391#0"/>
    </vehicle>
    <vehicle id="amu0" depart="8.00" type="ambulance" route="amuPath0"/>
    <vehicle id="8" depart="10.00" type="passenger">
        <route edges="-23758703 23757213#4 23464390#0 -23516452#0 23464391#1"/>
    </vehicle>
    <vehicle id="9" depart="10.00" type="passenger">
        <route edges="23758704#2 23757213#3 23757213#4 23464390#0 -23464390#0"/>
    </vehicle>
    <vehicle id="amu1" depart="12.00" type="ambulance" route="vertical0"/>
    <vehicle id="10" depart="12.00" type="passenger">
        <route edges="-23757213#5 23464390#0 -23516452#0 23464391#1"/>
    </vehicle>
    <vehicle id="amu2" depart="13.00" type="ambulance" route="amuPath1"/>
    <vehicle id="11" depart="14.00" type="passenger">
        <route edges="-23464390#0"/>
    </vehicle>
    <vehicle id="12" depart="16.00" type="passenger">
        <route edges="23757213#1 23757213#3 23757213#4 23464390#0 23464390#1"/>
    </vehicle>
    <vehicle id="13" depart="18.00" type="passenger">
        <route edges="-23757213#5 23464390#0 -23516452#0"/>
    </vehicle>

</routes>
