<?xml version="1.0" encoding="UTF-8"?>

<routes xmlns:xsi="http://www.w3.org/2001/XMLSchema-instance" xsi:noNamespaceSchemaLocation="http://sumo.dlr.de/xsd/routes_file.xsd">
	<vType id="passenger" speedFactor="normc(1.00,0.10,0.20,2.00)" vClass="passenger"/>
    <vType id="ambulance" speedFactor="normc(1.00,0.10,0.20,2.00)" vClass="emergency"/>

    <vehicle id="0" depart="0.00" type="passenger">
        <route edges="-23464390#0 23464390#0 -23516452#0 -23464391#0"/>
    </vehicle>
    <vehicle id="1" depart="2.00" type="passenger">
        <route edges="-23464390#1 23516452#1"/>
    </vehicle>
    <vehicle id="2" depart="4.00" type="passenger">
        <route edges="-23758703 23757213#4 23464390#0 23516452#1"/>
    </vehicle>
    <vehicle id="3" depart="6.00" type="passenger">
        <route edges="-23757213#5 -23757213#4 -23757213#3 23464391#0"/>
    </vehicle>
    <vehicle id="4" depart="8.00" type="ambulance">
        <route edges="-23758703 23757213#4 23464390#0 -23516452#0 23464391#1"/>
    </vehicle>
    <vehicle id="5" depart="10.00" type="passenger">
        <route edges="23758704#2 23757213#3 23757213#4 23464390#0 -23464390#0"/>
    </vehicle>
    <vehicle id="6" depart="12.00" type="passenger">
        <route edges="-23757213#5 23464390#0 -23516452#0 23516452#0"/>
    </vehicle>
    <vehicle id="7" depart="14.00" type="passenger">
        <route edges="-23464390#0"/>
    </vehicle>
    <vehicle id="8" depart="16.00" type="passenger">
        <route edges="23757213#1 23757213#3 23757213#4 23464390#0 23464390#1"/>
    </vehicle>
    <vehicle id="9" depart="18.00" type="passenger">
        <route edges="-23757213#5 23464390#0 -23516452#0"/>
    </vehicle>
</routes>
