<?xml version="1.0" encoding="UTF-8"?>

<net version="0.27" junctionCornerDetail="5" xmlns:xsi="http://www.w3.org/2001/XMLSchema-instance" xsi:noNamespaceSchemaLocation="http://sumo.dlr.de/xsd/net_file.xsd">

    <location netOffset="-655086.45,-5241423.44" convBoundary="524.96,518.75,968.26,921.39" origBoundary="5.051979,47.307818,5.066800,47.317133" projParameter="+proj=utm +zone=31 +ellps=WGS84 +datum=WGS84 +units=m +no_defs"/>

    <type id="highway.bridleway" priority="1" numLanes="1" speed="2.78" allow="pedestrian" oneway="1" width="2.00"/>
    <type id="highway.bus_guideway" priority="1" numLanes="1" speed="8.33" allow="bus" oneway="1"/>
    <type id="highway.cycleway" priority="1" numLanes="1" speed="5.56" allow="bicycle" oneway="0" width="1.00"/>
    <type id="highway.footway" priority="1" numLanes="1" speed="2.78" allow="pedestrian" oneway="1" width="2.00"/>
    <type id="highway.ford" priority="1" numLanes="1" speed="2.78" allow="army" oneway="0"/>
    <type id="highway.living_street" priority="3" numLanes="1" speed="2.78" disallow="tram rail_urban rail rail_electric ship" oneway="0"/>
    <type id="highway.motorway" priority="13" numLanes="2" speed="44.44" allow="private emergency authority army vip passenger hov taxi bus coach delivery truck trailer motorcycle evehicle custom1 custom2" oneway="1"/>
    <type id="highway.motorway_link" priority="12" numLanes="1" speed="22.22" allow="private emergency authority army vip passenger hov taxi bus coach delivery truck trailer motorcycle evehicle custom1 custom2" oneway="1"/>
    <type id="highway.path" priority="1" numLanes="1" speed="2.78" allow="bicycle pedestrian" oneway="1" width="2.00"/>
    <type id="highway.pedestrian" priority="1" numLanes="1" speed="2.78" allow="pedestrian" oneway="1" width="2.00"/>
    <type id="highway.primary" priority="9" numLanes="2" speed="27.78" disallow="tram rail_urban rail rail_electric ship" oneway="0"/>
    <type id="highway.primary_link" priority="8" numLanes="1" speed="22.22" disallow="tram rail_urban rail rail_electric ship" oneway="0"/>
    <type id="highway.raceway" priority="14" numLanes="2" speed="83.33" allow="vip" oneway="0"/>
    <type id="highway.residential" priority="4" numLanes="1" speed="13.89" disallow="tram rail_urban rail rail_electric ship" oneway="0"/>
    <type id="highway.secondary" priority="7" numLanes="2" speed="27.78" disallow="tram rail_urban rail rail_electric ship" oneway="0"/>
    <type id="highway.secondary_link" priority="6" numLanes="1" speed="22.22" disallow="tram rail_urban rail rail_electric ship" oneway="0"/>
    <type id="highway.service" priority="2" numLanes="1" speed="5.56" allow="delivery bicycle pedestrian" oneway="0"/>
    <type id="highway.services" priority="1" numLanes="1" speed="8.33" disallow="tram rail_urban rail rail_electric ship" oneway="0"/>
    <type id="highway.stairs" priority="1" numLanes="1" speed="1.39" allow="pedestrian" oneway="1" width="2.00"/>
    <type id="highway.step" priority="1" numLanes="1" speed="1.39" allow="pedestrian" oneway="1" width="2.00"/>
    <type id="highway.steps" priority="1" numLanes="1" speed="1.39" allow="pedestrian" oneway="1" width="2.00"/>
    <type id="highway.tertiary" priority="6" numLanes="1" speed="22.22" disallow="tram rail_urban rail rail_electric ship" oneway="0"/>
    <type id="highway.tertiary_link" priority="5" numLanes="1" speed="22.22" disallow="tram rail_urban rail rail_electric ship" oneway="0"/>
    <type id="highway.track" priority="1" numLanes="1" speed="5.56" disallow="tram rail_urban rail rail_electric ship" oneway="0"/>
    <type id="highway.trunk" priority="11" numLanes="2" speed="27.78" disallow="tram rail_urban rail rail_electric bicycle pedestrian ship" oneway="0"/>
    <type id="highway.trunk_link" priority="10" numLanes="1" speed="22.22" disallow="tram rail_urban rail rail_electric bicycle pedestrian ship" oneway="0"/>
    <type id="highway.unclassified" priority="5" numLanes="1" speed="13.89" disallow="tram rail_urban rail rail_electric ship" oneway="0"/>
    <type id="highway.unsurfaced" priority="1" numLanes="1" speed="8.33" disallow="tram rail_urban rail rail_electric ship" oneway="0"/>
    <type id="railway.light_rail" priority="15" numLanes="1" speed="27.78" allow="rail_urban" oneway="1"/>
    <type id="railway.preserved" priority="15" numLanes="1" speed="27.78" allow="rail" oneway="1"/>
    <type id="railway.rail" priority="15" numLanes="1" speed="83.33" allow="rail rail_electric" oneway="1"/>
    <type id="railway.subway" priority="15" numLanes="1" speed="27.78" allow="rail_urban" oneway="1"/>
    <type id="railway.tram" priority="15" numLanes="1" speed="13.89" allow="tram" oneway="1"/>

    <edge id=":1725230613_0" function="internal">
        <lane id=":1725230613_0_0" index="0" disallow="tram rail_urban rail rail_electric ship" speed="13.89" length="4.82" shape="968.21,602.42 969.47,603.21 969.91,604.02 969.52,604.86 968.31,605.72"/>
    </edge>
    <edge id=":1725230616_0" function="internal">
        <lane id=":1725230616_0_0" index="0" disallow="tram rail_urban rail rail_electric ship" speed="13.89" length="4.82" shape="880.59,709.39 882.01,709.83 882.64,710.50 882.48,711.41 881.53,712.55"/>
    </edge>
    <edge id=":2133936337_0" function="internal">
        <lane id=":2133936337_0_0" index="0" disallow="tram rail_urban rail rail_electric ship" speed="13.89" length="4.82" shape="756.07,920.82 755.72,922.27 755.09,922.94 754.17,922.84 752.97,921.96"/>
    </edge>
    <edge id=":254108779_0" function="internal">
        <lane id=":254108779_0_0" index="0" disallow="tram rail_urban rail rail_electric ship" speed="13.89" length="4.82" shape="825.42,863.34 824.03,863.86 823.12,863.70 822.69,862.89 822.76,861.40"/>
    </edge>
    <edge id=":254671758_0" function="internal">
        <lane id=":254671758_0_0" index="0" disallow="tram rail_urban rail rail_electric ship" speed="13.89" length="10.10" shape="707.22,807.09 703.80,797.57"/>
        <lane id=":254671758_0_1" index="1" disallow="tram rail_urban rail rail_electric ship" speed="13.89" length="10.10" shape="710.31,805.95 706.91,796.47"/>
    </edge>
    <edge id=":254671758_2" function="internal">
        <lane id=":254671758_2_0" index="0" disallow="tram rail_urban rail rail_electric ship" speed="13.89" length="3.43" shape="710.31,805.95 710.29,804.03 710.94,802.67"/>
    </edge>
    <edge id=":254671758_3" function="internal">
        <lane id=":254671758_3_0" index="0" disallow="tram rail_urban rail rail_electric ship" speed="13.89" length="2.41" shape="710.31,805.95 710.66,804.51 711.29,803.83"/>
    </edge>
    <edge id=":254671758_11" function="internal">
        <lane id=":254671758_11_0" index="0" speed="13.89" length="9.79" shape="710.94,802.67 711.45,801.62 713.79,798.72 717.32,795.33"/>
    </edge>
    <edge id=":254671758_12" function="internal">
        <lane id=":254671758_12_0" index="0" speed="13.89" length="2.41" shape="711.29,803.83 712.21,803.94 713.41,804.81"/>
    </edge>
    <edge id=":254671758_4" function="internal">
        <lane id=":254671758_4_0" index="0" disallow="tram rail_urban rail rail_electric ship" speed="13.89" length="6.95" shape="719.50,797.81 717.86,799.46 716.81,800.99 716.36,802.39 716.51,803.67"/>
    </edge>
    <edge id=":254671758_5" function="internal">
        <lane id=":254671758_5_0" index="0" disallow="tram rail_urban rail rail_electric ship" speed="13.89" length="16.08" shape="719.50,797.81 715.26,800.77 711.74,801.54 708.96,800.10 706.91,796.47"/>
    </edge>
    <edge id=":254671758_6" function="internal">
        <lane id=":254671758_6_0" index="0" disallow="tram rail_urban rail rail_electric ship" speed="13.89" length="2.69" shape="719.50,797.81 718.03,798.01 717.17,797.66 717.10,797.39"/>
    </edge>
    <edge id=":254671758_13" function="internal">
        <lane id=":254671758_13_0" index="0" speed="13.89" length="2.13" shape="717.10,797.39 716.94,796.77 717.32,795.33"/>
    </edge>
    <edge id=":254671758_7" function="internal">
        <lane id=":254671758_7_0" index="0" disallow="tram rail_urban rail rail_electric ship" speed="13.89" length="5.54" shape="713.12,794.25 713.87,795.68 714.82,796.34 715.97,796.22 717.32,795.33"/>
    </edge>
    <edge id=":254671758_8" function="internal">
        <lane id=":254671758_8_0" index="0" disallow="tram rail_urban rail rail_electric ship" speed="13.89" length="10.03" shape="713.12,794.25 716.51,803.67"/>
        <lane id=":254671758_8_1" index="1" disallow="tram rail_urban rail rail_electric ship" speed="13.89" length="10.03" shape="710.02,795.36 713.41,804.81"/>
    </edge>
    <edge id=":254671758_10" function="internal">
        <lane id=":254671758_10_0" index="0" disallow="tram rail_urban rail rail_electric ship" speed="13.89" length="2.41" shape="710.02,795.36 709.65,796.80 709.02,797.47"/>
    </edge>
    <edge id=":254671758_14" function="internal">
        <lane id=":254671758_14_0" index="0" speed="13.89" length="2.41" shape="709.02,797.47 708.10,797.35 706.91,796.47"/>
    </edge>
    <edge id=":254671759_0" function="internal">
        <lane id=":254671759_0_0" index="0" disallow="tram rail_urban rail rail_electric ship" speed="13.89" length="7.47" shape="785.61,747.28 783.54,745.70 781.75,744.85 780.24,744.72 779.01,745.32"/>
    </edge>
    <edge id=":254671759_1" function="internal">
        <lane id=":254671759_1_0" index="0" disallow="tram rail_urban rail rail_electric ship" speed="13.89" length="12.89" shape="785.61,747.28 783.07,744.95 781.05,742.67 779.50,740.11 778.35,736.91"/>
    </edge>
    <edge id=":254671759_2" function="internal">
        <lane id=":254671759_2_0" index="0" disallow="tram rail_urban rail rail_electric ship" speed="13.89" length="6.56" shape="785.61,747.28 782.84,744.12 782.35,741.82"/>
    </edge>
    <edge id=":254671759_3" function="internal">
        <lane id=":254671759_3_0" index="0" disallow="tram rail_urban rail rail_electric ship" speed="13.89" length="2.41" shape="785.61,747.28 785.22,745.85 785.46,744.95"/>
    </edge>
    <edge id=":254671759_16" function="internal">
        <lane id=":254671759_16_0" index="0" speed="13.89" length="7.34" shape="782.35,741.82 782.27,741.43 783.90,739.22 787.73,737.49"/>
    </edge>
    <edge id=":254671759_17" function="internal">
        <lane id=":254671759_17_0" index="0" speed="13.89" length="2.41" shape="785.46,744.95 786.31,744.61 787.79,744.81"/>
    </edge>
    <edge id=":254671759_4" function="internal">
        <lane id=":254671759_4_0" index="0" disallow="tram rail_urban rail rail_electric ship" speed="13.89" length="5.90" shape="788.69,740.65 787.06,741.38 786.37,742.32 786.61,743.46 787.79,744.81"/>
    </edge>
    <edge id=":254671759_5" function="internal">
        <lane id=":254671759_5_0" index="0" disallow="tram rail_urban rail rail_electric ship" speed="13.89" length="10.89" shape="788.69,740.65 785.68,741.53 783.46,742.29 781.43,743.40 779.01,745.32"/>
    </edge>
    <edge id=":254671759_6" function="internal">
        <lane id=":254671759_6_0" index="0" disallow="tram rail_urban rail rail_electric ship" speed="13.89" length="6.51" shape="788.69,740.65 784.80,741.40 782.27,741.09"/>
    </edge>
    <edge id=":254671759_7" function="internal">
        <lane id=":254671759_7_0" index="0" disallow="tram rail_urban rail rail_electric ship" speed="13.89" length="2.41" shape="788.69,740.65 787.26,740.22 786.63,739.55"/>
    </edge>
    <edge id=":254671759_18" function="internal">
        <lane id=":254671759_18_0" index="0" speed="13.89" length="6.03" shape="782.27,741.09 781.78,741.03 779.63,739.53 778.35,736.91"/>
    </edge>
    <edge id=":254671759_19" function="internal">
        <lane id=":254671759_19_0" index="0" speed="13.89" length="2.41" shape="786.63,739.55 786.78,738.64 787.73,737.49"/>
    </edge>
    <edge id=":254671759_8" function="internal">
        <lane id=":254671759_8_0" index="0" disallow="tram rail_urban rail rail_electric ship" speed="13.89" length="7.13" shape="781.54,736.07 782.23,737.30 783.49,737.95 785.32,738.01 787.73,737.49"/>
    </edge>
    <edge id=":254671759_9" function="internal">
        <lane id=":254671759_9_0" index="0" disallow="tram rail_urban rail rail_electric ship" speed="13.89" length="11.00" shape="781.54,736.07 782.53,739.01 783.74,741.01 785.41,742.73 787.79,744.81"/>
    </edge>
    <edge id=":254671759_10" function="internal">
        <lane id=":254671759_10_0" index="0" disallow="tram rail_urban rail rail_electric ship" speed="13.89" length="4.67" shape="781.54,736.07 781.95,738.78 781.72,740.70"/>
    </edge>
    <edge id=":254671759_11" function="internal">
        <lane id=":254671759_11_0" index="0" disallow="tram rail_urban rail rail_electric ship" speed="13.89" length="2.30" shape="781.54,736.07 781.06,737.48 780.45,738.02"/>
    </edge>
    <edge id=":254671759_20" function="internal">
        <lane id=":254671759_20_0" index="0" speed="13.89" length="5.47" shape="781.72,740.70 781.66,741.23 780.68,743.41 779.01,745.32"/>
    </edge>
    <edge id=":254671759_21" function="internal">
        <lane id=":254671759_21_0" index="0" speed="13.89" length="2.51" shape="780.45,738.02 780.37,738.09 779.46,737.90 778.35,736.91"/>
    </edge>
    <edge id=":254671759_12" function="internal">
        <lane id=":254671759_12_0" index="0" disallow="tram rail_urban rail rail_electric ship" speed="13.89" length="6.48" shape="776.83,742.85 777.86,741.65 778.46,740.26 778.62,738.68 778.35,736.91"/>
    </edge>
    <edge id=":254671759_13" function="internal">
        <lane id=":254671759_13_0" index="0" disallow="tram rail_urban rail rail_electric ship" speed="13.89" length="12.27" shape="776.83,742.85 779.44,740.82 781.89,739.47 784.53,738.47 787.73,737.49"/>
    </edge>
    <edge id=":254671759_14" function="internal">
        <lane id=":254671759_14_0" index="0" disallow="tram rail_urban rail rail_electric ship" speed="13.89" length="5.27" shape="776.83,742.85 779.15,741.53 781.75,741.41"/>
    </edge>
    <edge id=":254671759_15" function="internal">
        <lane id=":254671759_15_0" index="0" disallow="tram rail_urban rail rail_electric ship" speed="13.89" length="2.56" shape="776.83,742.85 778.30,742.65 779.16,742.99 779.19,743.14"/>
    </edge>
    <edge id=":254671759_22" function="internal">
        <lane id=":254671759_22_0" index="0" speed="13.89" length="6.99" shape="781.75,741.41 784.63,742.51 787.79,744.81"/>
    </edge>
    <edge id=":254671759_23" function="internal">
        <lane id=":254671759_23_0" index="0" speed="13.89" length="2.26" shape="779.19,743.14 779.39,743.89 779.01,745.32"/>
    </edge>
    <edge id=":257412129_0" function="internal">
        <lane id=":257412129_0_0" index="0" disallow="tram rail_urban rail rail_electric ship" speed="13.89" length="15.21" shape="722.74,670.54 718.70,672.46 715.97,673.84 713.31,675.35 709.46,677.62"/>
        <lane id=":257412129_0_1" index="1" disallow="tram rail_urban rail rail_electric ship" speed="13.89" length="15.21" shape="721.34,667.56 717.21,669.51 714.43,670.92 711.71,672.46 707.78,674.78"/>
    </edge>
    <edge id=":257412129_2" function="internal">
        <lane id=":257412129_2_0" index="0" disallow="tram rail_urban rail rail_electric ship" speed="13.89" length="5.92" shape="721.34,667.56 717.57,668.65 715.58,668.43"/>
    </edge>
    <edge id=":257412129_3" function="internal">
        <lane id=":257412129_3_0" index="0" disallow="tram rail_urban rail rail_electric ship" speed="13.89" length="2.41" shape="721.34,667.56 719.87,667.33 719.14,666.76"/>
    </edge>
    <edge id=":257412129_12" function="internal">
        <lane id=":257412129_12_0" index="0" speed="13.89" length="9.47" shape="715.58,668.43 714.13,668.27 711.01,666.40 708.21,663.04"/>
    </edge>
    <edge id=":257412129_13" function="internal">
        <lane id=":257412129_13_0" index="0" speed="13.89" length="2.41" shape="719.14,666.76 719.17,665.84 719.94,664.57"/>
    </edge>
    <edge id=":257412129_4" function="internal">
        <lane id=":257412129_4_0" index="0" disallow="tram rail_urban rail rail_electric ship" speed="13.89" length="5.76" shape="713.76,659.47 714.86,660.85 716.03,661.67 717.25,661.91 718.53,661.58"/>
    </edge>
    <edge id=":257412129_5" function="internal">
        <lane id=":257412129_5_0" index="0" disallow="tram rail_urban rail rail_electric ship" speed="13.89" length="10.58" shape="710.98,661.25 712.94,663.62 715.08,664.97 717.41,665.28 719.94,664.57"/>
    </edge>
    <edge id=":257412129_6" function="internal">
        <lane id=":257412129_6_0" index="0" disallow="tram rail_urban rail rail_electric ship" speed="13.89" length="15.99" shape="710.98,661.25 712.82,665.26 712.89,668.85 711.21,672.02 707.78,674.78"/>
    </edge>
    <edge id=":257412129_7" function="internal">
        <lane id=":257412129_7_0" index="0" disallow="tram rail_urban rail rail_electric ship" speed="13.89" length="2.41" shape="710.98,661.25 710.96,662.74 710.49,663.53"/>
    </edge>
    <edge id=":257412129_14" function="internal">
        <lane id=":257412129_14_0" index="0" speed="13.89" length="2.41" shape="710.49,663.53 709.57,663.63 708.21,663.04"/>
    </edge>
    <edge id=":257412129_8" function="internal">
        <lane id=":257412129_8_0" index="0" disallow="tram rail_urban rail rail_electric ship" speed="13.89" length="5.05" shape="704.42,669.09 705.51,668.22 706.04,667.22 706.01,666.09 705.43,664.83"/>
    </edge>
    <edge id=":257412129_9" function="internal">
        <lane id=":257412129_9_0" index="0" disallow="tram rail_urban rail rail_electric ship" speed="13.89" length="15.84" shape="704.42,669.09 708.51,666.68 711.35,665.08 714.24,663.61 718.53,661.58"/>
        <lane id=":257412129_9_1" index="1" disallow="tram rail_urban rail rail_electric ship" speed="13.89" length="15.84" shape="706.10,671.93 710.11,669.57 712.89,668.00 715.73,666.56 719.94,664.57"/>
    </edge>
    <edge id=":257412129_11" function="internal">
        <lane id=":257412129_11_0" index="0" disallow="tram rail_urban rail rail_electric ship" speed="13.89" length="2.41" shape="706.10,671.93 707.59,672.01 708.36,672.52"/>
    </edge>
    <edge id=":257412129_15" function="internal">
        <lane id=":257412129_15_0" index="0" speed="13.89" length="2.41" shape="708.36,672.52 708.43,673.44 707.78,674.78"/>
    </edge>
    <edge id=":257412130_0" function="internal">
        <lane id=":257412130_0_0" index="0" disallow="tram rail_urban rail rail_electric ship" speed="13.89" length="4.82" shape="643.13,561.91 643.16,560.43 643.63,559.63 644.54,559.53 645.91,560.13"/>
    </edge>
    <edge id=":257412134_0" function="internal">
        <lane id=":257412134_0_0" index="0" disallow="tram rail_urban rail rail_electric ship" speed="13.89" length="4.82" shape="569.63,574.60 569.52,573.12 569.92,572.29 570.82,572.11 572.23,572.58"/>
    </edge>
    <edge id=":257412140_0" function="internal">
        <lane id=":257412140_0_0" index="0" disallow="tram rail_urban rail rail_electric ship" speed="13.89" length="4.82" shape="525.78,779.24 524.30,779.14 523.53,778.63 523.48,777.71 524.14,776.38"/>
    </edge>
    <edge id=":28795771_0" function="internal">
        <lane id=":28795771_0_0" index="0" disallow="tram rail_urban rail rail_electric ship" speed="13.89" length="5.23" shape="757.50,657.96 756.92,656.61 756.07,655.85 754.94,655.68 753.53,656.11"/>
    </edge>
    <edge id=":28795771_1" function="internal">
        <lane id=":28795771_1_0" index="0" disallow="tram rail_urban rail rail_electric ship" speed="13.89" length="16.57" shape="757.50,657.96 756.33,654.14 754.80,650.13 753.03,646.22 751.13,642.71"/>
    </edge>
    <edge id=":28795771_2" function="internal">
        <lane id=":28795771_2_0" index="0" disallow="tram rail_urban rail rail_electric ship" speed="13.89" length="7.19" shape="757.50,657.96 756.72,653.54 756.85,650.84"/>
    </edge>
    <edge id=":28795771_3" function="internal">
        <lane id=":28795771_3_0" index="0" disallow="tram rail_urban rail rail_electric ship" speed="13.89" length="2.41" shape="757.50,657.96 757.98,656.55 758.67,655.94"/>
    </edge>
    <edge id=":28795771_18" function="internal">
        <lane id=":28795771_18_0" index="0" speed="13.89" length="7.11" shape="756.85,650.84 756.90,649.88 758.06,646.98 760.18,644.83"/>
    </edge>
    <edge id=":28795771_19" function="internal">
        <lane id=":28795771_19_0" index="0" speed="13.89" length="2.41" shape="758.67,655.94 759.58,656.13 760.69,657.12"/>
    </edge>
    <edge id=":28795771_4" function="internal">
        <lane id=":28795771_4_0" index="0" disallow="tram rail_urban rail rail_electric ship" speed="13.89" length="8.09" shape="763.89,650.29 762.10,651.80 760.97,653.44 760.50,655.21 760.69,657.12"/>
    </edge>
    <edge id=":28795771_5" function="internal">
        <lane id=":28795771_5_0" index="0" disallow="tram rail_urban rail rail_electric ship" speed="13.89" length="11.64" shape="763.89,650.29 760.95,652.25 758.89,653.50 756.73,654.60 753.53,656.11"/>
        <lane id=":28795771_5_1" index="1" disallow="tram rail_urban rail rail_electric ship" speed="13.89" length="11.64" shape="762.04,647.56 759.23,649.44 757.25,650.63 755.19,651.68 752.13,653.12"/>
    </edge>
    <edge id=":28795771_7" function="internal">
        <lane id=":28795771_7_0" index="0" disallow="tram rail_urban rail rail_electric ship" speed="13.89" length="4.72" shape="762.04,647.56 759.22,648.71 757.56,648.45"/>
    </edge>
    <edge id=":28795771_8" function="internal">
        <lane id=":28795771_8_0" index="0" disallow="tram rail_urban rail rail_electric ship" speed="13.89" length="2.41" shape="762.04,647.56 760.55,647.57 759.74,647.12"/>
    </edge>
    <edge id=":28795771_20" function="internal">
        <lane id=":28795771_20_0" index="0" speed="13.89" length="8.91" shape="757.56,648.45 756.46,648.28 753.77,646.28 751.13,642.71"/>
    </edge>
    <edge id=":28795771_21" function="internal">
        <lane id=":28795771_21_0" index="0" speed="13.89" length="2.41" shape="759.74,647.12 759.62,646.21 760.18,644.83"/>
    </edge>
    <edge id=":28795771_9" function="internal">
        <lane id=":28795771_9_0" index="0" disallow="tram rail_urban rail rail_electric ship" speed="13.89" length="5.20" shape="753.96,641.01 754.88,642.16 755.91,642.73 757.06,642.70 758.33,642.10"/>
    </edge>
    <edge id=":28795771_10" function="internal">
        <lane id=":28795771_10_0" index="0" disallow="tram rail_urban rail rail_electric ship" speed="13.89" length="17.49" shape="753.96,641.01 755.92,644.66 757.81,648.86 759.46,653.17 760.69,657.12"/>
    </edge>
    <edge id=":28795771_11" function="internal">
        <lane id=":28795771_11_0" index="0" disallow="tram rail_urban rail rail_electric ship" speed="13.89" length="8.25" shape="753.96,641.01 755.82,645.07 756.13,648.43 755.96,648.81"/>
    </edge>
    <edge id=":28795771_12" function="internal">
        <lane id=":28795771_12_0" index="0" disallow="tram rail_urban rail rail_electric ship" speed="13.89" length="2.54" shape="753.96,641.01 753.89,642.50 753.39,643.28 753.26,643.29"/>
    </edge>
    <edge id=":28795771_22" function="internal">
        <lane id=":28795771_22_0" index="0" speed="13.89" length="5.95" shape="755.96,648.81 754.90,651.12 752.13,653.12"/>
    </edge>
    <edge id=":28795771_23" function="internal">
        <lane id=":28795771_23_0" index="0" speed="13.89" length="2.28" shape="753.26,643.29 752.47,643.35 751.13,642.71"/>
    </edge>
    <edge id=":28795771_13" function="internal">
        <lane id=":28795771_13_0" index="0" disallow="tram rail_urban rail rail_electric ship" speed="13.89" length="5.58" shape="749.33,647.14 750.75,646.25 751.52,645.22 751.65,644.04 751.13,642.71"/>
    </edge>
    <edge id=":28795771_14" function="internal">
        <lane id=":28795771_14_0" index="0" disallow="tram rail_urban rail rail_electric ship" speed="13.89" length="10.60" shape="749.33,647.14 752.11,645.84 753.98,644.89 755.78,643.80 758.33,642.10"/>
        <lane id=":28795771_14_1" index="1" disallow="tram rail_urban rail rail_electric ship" speed="13.89" length="10.60" shape="750.73,650.13 753.65,648.76 755.61,647.76 757.50,646.62 760.18,644.83"/>
    </edge>
    <edge id=":28795771_16" function="internal">
        <lane id=":28795771_16_0" index="0" disallow="tram rail_urban rail rail_electric ship" speed="13.89" length="4.90" shape="750.73,650.13 754.06,649.30 755.46,649.75"/>
    </edge>
    <edge id=":28795771_17" function="internal">
        <lane id=":28795771_17_0" index="0" disallow="tram rail_urban rail rail_electric ship" speed="13.89" length="2.41" shape="750.73,650.13 752.20,650.35 752.92,650.92"/>
    </edge>
    <edge id=":28795771_24" function="internal">
        <lane id=":28795771_24_0" index="0" speed="13.89" length="9.48" shape="755.46,649.75 756.83,650.19 759.04,652.79 760.69,657.12"/>
    </edge>
    <edge id=":28795771_25" function="internal">
        <lane id=":28795771_25_0" index="0" speed="13.89" length="2.41" shape="752.92,650.92 752.90,651.85 752.13,653.12"/>
    </edge>
    <edge id=":28795772_0" function="internal">
        <lane id=":28795772_0_0" index="0" disallow="tram rail_urban rail rail_electric ship" speed="13.89" length="4.82" shape="769.34,517.48 770.82,517.33 771.66,517.70 771.87,518.60 771.44,520.02"/>
    </edge>
    <edge id=":cluster_254108781_257412131_0" function="internal">
        <lane id=":cluster_254108781_257412131_0_0" index="0" disallow="tram rail_urban rail rail_electric ship" speed="13.89" length="10.25" shape="670.37,703.75 669.36,702.63 667.50,702.50 664.77,703.34 661.19,705.16"/>
    </edge>
    <edge id=":cluster_254108781_257412131_1" function="internal">
        <lane id=":cluster_254108781_257412131_1_0" index="0" disallow="tram rail_urban rail rail_electric ship" speed="13.89" length="18.50" shape="670.37,703.75 667.81,699.45 664.65,697.51 661.03,695.83 657.09,692.27"/>
        <lane id=":cluster_254108781_257412131_1_1" index="1" disallow="tram rail_urban rail rail_electric ship" speed="13.89" length="18.50" shape="673.47,702.65 670.81,698.05 667.55,695.91 663.81,694.04 659.70,690.25"/>
    </edge>
    <edge id=":cluster_254108781_257412131_3" function="internal">
        <lane id=":cluster_254108781_257412131_3_0" index="0" disallow="tram rail_urban rail rail_electric ship" speed="13.89" length="5.08" shape="673.47,702.65 672.45,698.25 672.49,697.69"/>
    </edge>
    <edge id=":cluster_254108781_257412131_4" function="internal">
        <lane id=":cluster_254108781_257412131_4_0" index="0" disallow="tram rail_urban rail rail_electric ship" speed="13.89" length="2.14" shape="673.47,702.65 673.84,701.20 674.29,700.73"/>
    </edge>
    <edge id=":cluster_254108781_257412131_20" function="internal">
        <lane id=":cluster_254108781_257412131_20_0" index="0" speed="13.89" length="10.44" shape="672.49,697.69 672.73,694.51 674.32,691.43 677.22,689.00"/>
    </edge>
    <edge id=":cluster_254108781_257412131_21" function="internal">
        <lane id=":cluster_254108781_257412131_21_0" index="0" speed="13.89" length="2.68" shape="674.29,700.73 674.47,700.54 675.39,700.65 676.58,701.54"/>
    </edge>
    <edge id=":cluster_254108781_257412131_5" function="internal">
        <lane id=":cluster_254108781_257412131_5_0" index="0" disallow="tram rail_urban rail rail_electric ship" speed="13.89" length="6.32" shape="680.58,694.68 679.62,695.58 679.14,696.83 679.17,698.45 679.69,700.43"/>
    </edge>
    <edge id=":cluster_254108781_257412131_6" function="internal">
        <lane id=":cluster_254108781_257412131_6_0" index="0" disallow="tram rail_urban rail rail_electric ship" speed="13.89" length="22.02" shape="680.58,694.68 661.19,705.16"/>
        <lane id=":cluster_254108781_257412131_6_1" index="1" disallow="tram rail_urban rail rail_electric ship" speed="13.89" length="22.02" shape="678.90,691.84 659.54,702.30"/>
    </edge>
    <edge id=":cluster_254108781_257412131_8" function="internal">
        <lane id=":cluster_254108781_257412131_8_0" index="0" disallow="tram rail_urban rail rail_electric ship" speed="13.89" length="9.76" shape="678.90,691.84 673.09,694.47 669.73,694.86"/>
    </edge>
    <edge id=":cluster_254108781_257412131_9" function="internal">
        <lane id=":cluster_254108781_257412131_9_0" index="0" disallow="tram rail_urban rail rail_electric ship" speed="13.89" length="2.53" shape="678.90,691.84 677.42,691.76 676.64,691.26 676.63,691.13"/>
    </edge>
    <edge id=":cluster_254108781_257412131_22" function="internal">
        <lane id=":cluster_254108781_257412131_22_0" index="0" speed="13.89" length="11.58" shape="669.73,694.86 667.95,695.08 663.49,693.67 659.70,690.25"/>
    </edge>
    <edge id=":cluster_254108781_257412131_23" function="internal">
        <lane id=":cluster_254108781_257412131_23_0" index="0" speed="13.89" length="2.29" shape="676.63,691.13 676.58,690.34 677.22,689.00"/>
    </edge>
    <edge id=":cluster_254108781_257412131_10" function="internal">
        <lane id=":cluster_254108781_257412131_10_0" index="0" disallow="tram rail_urban rail rail_electric ship" speed="13.89" length="11.70" shape="664.90,686.19 666.82,687.79 669.23,688.32 672.14,687.78 675.54,686.16"/>
    </edge>
    <edge id=":cluster_254108781_257412131_11" function="internal">
        <lane id=":cluster_254108781_257412131_11_0" index="0" disallow="tram rail_urban rail rail_electric ship" speed="13.89" length="20.46" shape="664.90,686.19 669.33,690.42 673.34,692.74 676.83,695.34 679.69,700.43"/>
        <lane id=":cluster_254108781_257412131_11_1" index="1" disallow="tram rail_urban rail rail_electric ship" speed="13.89" length="20.46" shape="662.30,688.22 666.60,692.26 670.46,694.32 673.81,696.66 676.58,701.54"/>
    </edge>
    <edge id=":cluster_254108781_257412131_13" function="internal">