<?xml version="1.0" encoding="UTF-8"?>

<net version="0.27" junctionCornerDetail="5" xmlns:xsi="http://www.w3.org/2001/XMLSchema-instance" xsi:noNamespaceSchemaLocation="http://sumo.dlr.de/xsd/net_file.xsd">

    <location netOffset="-655086.45,-5241423.44" convBoundary="567.57,518.75,897.75,862.37" origBoundary="5.051979,47.307818,5.066800,47.317133" projParameter="+proj=utm +zone=31 +ellps=WGS84 +datum=WGS84 +units=m +no_defs"/>

    <type id="highway.bridleway" priority="1" numLanes="1" speed="2.78" allow="pedestrian" oneway="1" width="2.00"/>
    <type id="highway.bus_guideway" priority="1" numLanes="1" speed="8.33" allow="bus" oneway="1"/>
    <type id="highway.cycleway" priority="1" numLanes="1" speed="5.56" allow="bicycle" oneway="0" width="1.00"/>
    <type id="highway.footway" priority="1" numLanes="1" speed="2.78" allow="pedestrian" oneway="1" width="2.00"/>
    <type id="highway.ford" priority="1" numLanes="1" speed="2.78" allow="army" oneway="0"/>
    <type id="highway.living_street" priority="3" numLanes="1" speed="2.78" disallow="tram rail_urban rail rail_electric ship" oneway="0"/>
    <type id="highway.motorway" priority="13" numLanes="2" speed="44.44" allow="private emergency authority army vip passenger hov taxi bus coach delivery truck trailer motorcycle evehicle custom1 custom2" oneway="1"/>
    <type id="highway.motorway_link" priority="12" numLanes="1" speed="22.22" allow="private emergency authority army vip passenger hov taxi bus coach delivery truck trailer motorcycle evehicle custom1 custom2" oneway="1"/>
    <type id="highway.path" priority="1" numLanes="1" speed="2.78" allow="bicycle pedestrian" oneway="1" width="2.00"/>
    <type id="highway.pedestrian" priority="1" numLanes="1" speed="2.78" allow="pedestrian" oneway="1" width="2.00"/>
    <type id="highway.primary" priority="9" numLanes="2" speed="27.78" disallow="tram rail_urban rail rail_electric ship" oneway="0"/>
    <type id="highway.primary_link" priority="8" numLanes="1" speed="22.22" disallow="tram rail_urban rail rail_electric ship" oneway="0"/>
    <type id="highway.raceway" priority="14" numLanes="2" speed="83.33" allow="vip" oneway="0"/>
    <type id="highway.residential" priority="4" numLanes="1" speed="13.89" disallow="tram rail_urban rail rail_electric ship" oneway="0"/>
    <type id="highway.secondary" priority="7" numLanes="2" speed="27.78" disallow="tram rail_urban rail rail_electric ship" oneway="0"/>
    <type id="highway.secondary_link" priority="6" numLanes="1" speed="22.22" disallow="tram rail_urban rail rail_electric ship" oneway="0"/>
    <type id="highway.service" priority="2" numLanes="1" speed="5.56" allow="delivery bicycle pedestrian" oneway="0"/>
    <type id="highway.services" priority="1" numLanes="1" speed="8.33" disallow="tram rail_urban rail rail_electric ship" oneway="0"/>
    <type id="highway.stairs" priority="1" numLanes="1" speed="1.39" allow="pedestrian" oneway="1" width="2.00"/>
    <type id="highway.step" priority="1" numLanes="1" speed="1.39" allow="pedestrian" oneway="1" width="2.00"/>
    <type id="highway.steps" priority="1" numLanes="1" speed="1.39" allow="pedestrian" oneway="1" width="2.00"/>
    <type id="highway.tertiary" priority="6" numLanes="1" speed="22.22" disallow="tram rail_urban rail rail_electric ship" oneway="0"/>
    <type id="highway.tertiary_link" priority="5" numLanes="1" speed="22.22" disallow="tram rail_urban rail rail_electric ship" oneway="0"/>
    <type id="highway.track" priority="1" numLanes="1" speed="5.56" disallow="tram rail_urban rail rail_electric ship" oneway="0"/>
    <type id="highway.trunk" priority="11" numLanes="2" speed="27.78" disallow="tram rail_urban rail rail_electric bicycle pedestrian ship" oneway="0"/>
    <type id="highway.trunk_link" priority="10" numLanes="1" speed="22.22" disallow="tram rail_urban rail rail_electric bicycle pedestrian ship" oneway="0"/>
    <type id="highway.unclassified" priority="5" numLanes="1" speed="13.89" disallow="tram rail_urban rail rail_electric ship" oneway="0"/>
    <type id="highway.unsurfaced" priority="1" numLanes="1" speed="8.33" disallow="tram rail_urban rail rail_electric ship" oneway="0"/>
    <type id="railway.light_rail" priority="15" numLanes="1" speed="27.78" allow="rail_urban" oneway="1"/>
    <type id="railway.preserved" priority="15" numLanes="1" speed="27.78" allow="rail" oneway="1"/>
    <type id="railway.rail" priority="15" numLanes="1" speed="83.33" allow="rail rail_electric" oneway="1"/>
    <type id="railway.subway" priority="15" numLanes="1" speed="27.78" allow="rail_urban" oneway="1"/>
    <type id="railway.tram" priority="15" numLanes="1" speed="13.89" allow="tram" oneway="1"/>

    <edge id=":1725230613_0" function="internal">
        <lane id=":1725230613_0_0" index="0" disallow="tram rail_urban rail rail_electric ship" speed="13.89" length="3.76" shape="858.38,613.91 857.43,613.33 856.73,613.01 855.98,612.85 854.87,612.75"/>
    </edge>
    <edge id=":1725230613_1" function="internal">
        <lane id=":1725230613_1_0" index="0" disallow="tram rail_urban rail rail_electric ship" speed="13.89" length="4.82" shape="855.11,609.46 856.29,610.37 856.64,611.22 856.17,612.02 854.87,612.75"/>
    </edge>
    <edge id=":1725230616_0" function="internal">
        <lane id=":1725230616_0_0" index="0" disallow="tram rail_urban rail rail_electric ship" speed="13.89" length="4.23" shape="877.67,710.25 878.67,709.84 879.51,709.25 880.19,708.47 880.71,707.52"/>
    </edge>
    <edge id=":1725230616_1" function="internal">
        <lane id=":1725230616_1_0" index="0" disallow="tram rail_urban rail rail_electric ship" speed="13.89" length="6.32" shape="877.67,710.25 878.97,710.03 880.93,709.76 882.78,709.37 883.76,708.79"/>
    </edge>
    <edge id=":1725230616_2" function="internal">
        <lane id=":1725230616_2_0" index="0" disallow="tram rail_urban rail rail_electric ship" speed="13.89" length="4.82" shape="877.67,710.25 879.09,710.69 879.72,711.37 879.56,712.27 878.60,713.41"/>
    </edge>
    <edge id=":2133936337_0" function="internal">
        <lane id=":2133936337_0_0" index="0" disallow="tram rail_urban rail rail_electric ship" speed="13.89" length="4.82" shape="734.54,858.38 734.22,859.83 733.60,860.52 732.69,860.43 731.46,859.58"/>
    </edge>
    <edge id=":254108779_0" function="internal">
        <lane id=":254108779_0_0" index="0" disallow="tram rail_urban rail rail_electric ship" speed="13.89" length="4.82" shape="825.42,863.34 824.03,863.86 823.12,863.70 822.69,862.89 822.76,861.40"/>
    </edge>
    <edge id=":254671758_0" function="internal">
        <lane id=":254671758_0_0" index="0" disallow="tram rail_urban rail rail_electric ship" speed="13.89" length="10.15" shape="710.87,807.21 707.36,797.68"/>
    </edge>
    <edge id=":254671758_1" function="internal">
        <lane id=":254671758_1_0" index="0" disallow="tram rail_urban rail rail_electric ship" speed="13.89" length="4.77" shape="710.87,807.21 710.43,804.89 710.91,802.53"/>
    </edge>
    <edge id=":254671758_2" function="internal">
        <lane id=":254671758_2_0" index="0" disallow="tram rail_urban rail rail_electric ship" speed="13.89" length="2.41" shape="710.87,807.21 711.18,805.76 711.80,805.07"/>
    </edge>
    <edge id=":254671758_9" function="internal">
        <lane id=":254671758_9_0" index="0" speed="13.89" length="6.18" shape="710.91,802.53 712.33,800.12 714.67,797.67"/>
    </edge>
    <edge id=":254671758_10" function="internal">
        <lane id=":254671758_10_0" index="0" speed="13.89" length="2.41" shape="711.80,805.07 712.72,805.15 713.94,806.00"/>
    </edge>
    <edge id=":254671758_3" function="internal">
        <lane id=":254671758_3_0" index="0" disallow="tram rail_urban rail rail_electric ship" speed="13.89" length="6.92" shape="716.85,800.15 715.22,801.79 714.19,803.32 713.76,804.72 713.94,806.00"/>
    </edge>
    <edge id=":254671758_4" function="internal">
        <lane id=":254671758_4_0" index="0" disallow="tram rail_urban rail rail_electric ship" speed="13.89" length="12.56" shape="716.85,800.15 713.79,802.17 711.19,802.43 709.05,800.93 707.36,797.68"/>
    </edge>
    <edge id=":254671758_5" function="internal">
        <lane id=":254671758_5_0" index="0" disallow="tram rail_urban rail rail_electric ship" speed="13.89" length="2.69" shape="716.85,800.15 715.38,800.35 714.52,800.00 714.45,799.73"/>
    </edge>
    <edge id=":254671758_11" function="internal">
        <lane id=":254671758_11_0" index="0" speed="13.89" length="2.13" shape="714.45,799.73 714.28,799.11 714.67,797.67"/>
    </edge>
    <edge id=":254671758_6" function="internal">
        <lane id=":254671758_6_0" index="0" disallow="tram rail_urban rail rail_electric ship" speed="13.89" length="5.55" shape="710.48,796.58 711.22,798.02 712.17,798.68 713.32,798.57 714.67,797.67"/>
    </edge>
    <edge id=":254671758_7" function="internal">
        <lane id=":254671758_7_0" index="0" disallow="tram rail_urban rail rail_electric ship" speed="13.89" length="10.04" shape="710.48,796.58 713.94,806.00"/>
    </edge>
    <edge id=":254671758_8" function="internal">
        <lane id=":254671758_8_0" index="0" disallow="tram rail_urban rail rail_electric ship" speed="13.89" length="2.41" shape="710.48,796.58 710.11,798.02 709.47,798.69"/>
    </edge>
    <edge id=":254671758_12" function="internal">
        <lane id=":254671758_12_0" index="0" speed="13.89" length="2.41" shape="709.47,798.69 708.55,798.57 707.36,797.68"/>
    </edge>
    <edge id=":254671759_0" function="internal">
        <lane id=":254671759_0_0" index="0" disallow="tram rail_urban rail rail_electric ship" speed="13.89" length="7.47" shape="785.61,747.28 783.54,745.70 781.75,744.85 780.24,744.72 779.01,745.32"/>
    </edge>
    <edge id=":254671759_1" function="internal">
        <lane id=":254671759_1_0" index="0" disallow="tram rail_urban rail rail_electric ship" speed="13.89" length="12.89" shape="785.61,747.28 783.07,744.95 781.05,742.67 779.50,740.11 778.35,736.91"/>
    </edge>
    <edge id=":254671759_2" function="internal">
        <lane id=":254671759_2_0" index="0" disallow="tram rail_urban rail rail_electric ship" speed="13.89" length="6.56" shape="785.61,747.28 782.84,744.12 782.35,741.82"/>
    </edge>
    <edge id=":254671759_3" function="internal">
        <lane id=":254671759_3_0" index="0" disallow="tram rail_urban rail rail_electric ship" speed="13.89" length="2.41" shape="785.61,747.28 785.22,745.85 785.46,744.95"/>
    </edge>
    <edge id=":254671759_16" function="internal">
        <lane id=":254671759_16_0" index="0" speed="13.89" length="7.34" shape="782.35,741.82 782.27,741.43 783.90,739.22 787.73,737.49"/>
    </edge>
    <edge id=":254671759_17" function="internal">
        <lane id=":254671759_17_0" index="0" speed="13.89" length="2.41" shape="785.46,744.95 786.31,744.61 787.79,744.81"/>
    </edge>
    <edge id=":254671759_4" function="internal">
        <lane id=":254671759_4_0" index="0" disallow="tram rail_urban rail rail_electric ship" speed="13.89" length="5.90" shape="788.69,740.65 787.06,741.38 786.37,742.32 786.61,743.46 787.79,744.81"/>
    </edge>
    <edge id=":254671759_5" function="internal">
        <lane id=":254671759_5_0" index="0" disallow="tram rail_urban rail rail_electric ship" speed="13.89" length="10.89" shape="788.69,740.65 785.68,741.53 783.46,742.29 781.43,743.40 779.01,745.32"/>
    </edge>
    <edge id=":254671759_6" function="internal">
        <lane id=":254671759_6_0" index="0" disallow="tram rail_urban rail rail_electric ship" speed="13.89" length="6.51" shape="788.69,740.65 784.80,741.40 782.27,741.09"/>
    </edge>
    <edge id=":254671759_7" function="internal">
        <lane id=":254671759_7_0" index="0" disallow="tram rail_urban rail rail_electric ship" speed="13.89" length="2.41" shape="788.69,740.65 787.26,740.22 786.63,739.55"/>
    </edge>
    <edge id=":254671759_18" function="internal">
        <lane id=":254671759_18_0" index="0" speed="13.89" length="6.03" shape="782.27,741.09 781.78,741.03 779.63,739.53 778.35,736.91"/>
    </edge>
    <edge id=":254671759_19" function="internal">
        <lane id=":254671759_19_0" index="0" speed="13.89" length="2.41" shape="786.63,739.55 786.78,738.64 787.73,737.49"/>
    </edge>
    <edge id=":254671759_8" function="internal">
        <lane id=":254671759_8_0" index="0" disallow="tram rail_urban rail rail_electric ship" speed="13.89" length="7.13" shape="781.54,736.07 782.23,737.30 783.49,737.95 785.32,738.01 787.73,737.49"/>
    </edge>
    <edge id=":254671759_9" function="internal">
        <lane id=":254671759_9_0" index="0" disallow="tram rail_urban rail rail_electric ship" speed="13.89" length="11.00" shape="781.54,736.07 782.53,739.01 783.74,741.01 785.41,742.73 787.79,744.81"/>
    </edge>
    <edge id=":254671759_10" function="internal">
        <lane id=":254671759_10_0" index="0" disallow="tram rail_urban rail rail_electric ship" speed="13.89" length="4.67" shape="781.54,736.07 781.95,738.78 781.72,740.70"/>
    </edge>
    <edge id=":254671759_11" function="internal">
        <lane id=":254671759_11_0" index="0" disallow="tram rail_urban rail rail_electric ship" speed="13.89" length="2.30" shape="781.54,736.07 781.06,737.48 780.45,738.02"/>
    </edge>
    <edge id=":254671759_20" function="internal">
        <lane id=":254671759_20_0" index="0" speed="13.89" length="5.47" shape="781.72,740.70 781.66,741.23 780.68,743.41 779.01,745.32"/>
    </edge>
    <edge id=":254671759_21" function="internal">
        <lane id=":254671759_21_0" index="0" speed="13.89" length="2.51" shape="780.45,738.02 780.37,738.09 779.46,737.90 778.35,736.91"/>
    </edge>
    <edge id=":254671759_12" function="internal">
        <lane id=":254671759_12_0" index="0" disallow="tram rail_urban rail rail_electric ship" speed="13.89" length="6.48" shape="776.83,742.85 777.86,741.65 778.46,740.26 778.62,738.68 778.35,736.91"/>
    </edge>
    <edge id=":254671759_13" function="internal">
        <lane id=":254671759_13_0" index="0" disallow="tram rail_urban rail rail_electric ship" speed="13.89" length="12.27" shape="776.83,742.85 779.44,740.82 781.89,739.47 784.53,738.47 787.73,737.49"/>
    </edge>
    <edge id=":254671759_14" function="internal">
        <lane id=":254671759_14_0" index="0" disallow="tram rail_urban rail rail_electric ship" speed="13.89" length="5.27" shape="776.83,742.85 779.15,741.53 781.75,741.41"/>
    </edge>
    <edge id=":254671759_15" function="internal">
        <lane id=":254671759_15_0" index="0" disallow="tram rail_urban rail rail_electric ship" speed="13.89" length="2.56" shape="776.83,742.85 778.30,742.65 779.16,742.99 779.19,743.14"/>
    </edge>
    <edge id=":254671759_22" function="internal">
        <lane id=":254671759_22_0" index="0" speed="13.89" length="6.99" shape="781.75,741.41 784.63,742.51 787.79,744.81"/>
    </edge>
    <edge id=":254671759_23" function="internal">
        <lane id=":254671759_23_0" index="0" speed="13.89" length="2.26" shape="779.19,743.14 779.39,743.89 779.01,745.32"/>
    </edge>
    <edge id=":257412129_0" function="internal">
        <lane id=":257412129_0_0" index="0" disallow="tram rail_urban rail rail_electric ship" speed="13.89" length="9.07" shape="718.69,668.80 716.25,669.95 714.61,670.78 713.00,671.69 710.68,673.05"/>
    </edge>
    <edge id=":257412129_1" function="internal">
        <lane id=":257412129_1_0" index="0" disallow="tram rail_urban rail rail_electric ship" speed="13.89" length="4.88" shape="718.69,668.80 716.20,669.53 713.92,669.30"/>
    </edge>
    <edge id=":257412129_2" function="internal">
        <lane id=":257412129_2_0" index="0" disallow="tram rail_urban rail rail_electric ship" speed="13.89" length="2.41" shape="718.69,668.80 717.22,668.58 716.49,668.00"/>
    </edge>
    <edge id=":257412129_9" function="internal">
        <lane id=":257412129_9_0" index="0" speed="13.89" length="5.24" shape="713.92,669.30 711.85,668.10 709.99,665.93"/>
    </edge>
    <edge id=":257412129_10" function="internal">
        <lane id=":257412129_10_0" index="0" speed="13.89" length="2.41" shape="716.49,668.00 716.52,667.08 717.29,665.81"/>
    </edge>
    <edge id=":257412129_3" function="internal">
        <lane id=":257412129_3_0" index="0" disallow="tram rail_urban rail rail_electric ship" speed="13.89" length="5.36" shape="712.74,664.11 713.75,665.31 714.85,666.00 716.03,666.16 717.29,665.81"/>
    </edge>
    <edge id=":257412129_4" function="internal">
        <lane id=":257412129_4_0" index="0" disallow="tram rail_urban rail rail_electric ship" speed="13.89" length="10.59" shape="712.74,664.11 714.00,666.75 714.07,669.13 712.96,671.22 710.68,673.05"/>
    </edge>
    <edge id=":257412129_5" function="internal">
        <lane id=":257412129_5_0" index="0" disallow="tram rail_urban rail rail_electric ship" speed="13.89" length="2.69" shape="712.74,664.11 712.74,665.60 712.28,666.40 712.00,666.43"/>
    </edge>
    <edge id=":257412129_11" function="internal">
        <lane id=":257412129_11_0" index="0" speed="13.89" length="2.13" shape="712.00,666.43 711.36,666.51 709.99,665.93"/>
    </edge>
    <edge id=":257412129_6" function="internal">
        <lane id=":257412129_6_0" index="0" disallow="tram rail_urban rail rail_electric ship" speed="13.89" length="5.06" shape="709.01,670.21 710.10,669.33 710.63,668.33 710.59,667.20 709.99,665.93"/>
    </edge>
    <edge id=":257412129_7" function="internal">
        <lane id=":257412129_7_0" index="0" disallow="tram rail_urban rail rail_electric ship" speed="13.89" length="9.38" shape="709.01,670.21 711.41,668.80 713.07,667.86 714.77,667.00 717.29,665.81"/>
    </edge>
    <edge id=":257412129_8" function="internal">
        <lane id=":257412129_8_0" index="0" disallow="tram rail_urban rail rail_electric ship" speed="13.89" length="2.41" shape="709.01,670.21 710.49,670.29 711.27,670.79"/>
    </edge>
    <edge id=":257412129_12" function="internal">
        <lane id=":257412129_12_0" index="0" speed="13.89" length="2.41" shape="711.27,670.79 711.33,671.71 710.68,673.05"/>
    </edge>
    <edge id=":257412130_0" function="internal">
        <lane id=":257412130_0_0" index="0" disallow="tram rail_urban rail rail_electric ship" speed="13.89" length="4.82" shape="656.66,585.45 656.67,583.96 657.13,583.16 658.04,583.05 659.42,583.63"/>
    </edge>
    <edge id=":257412134_0" function="internal">
        <lane id=":257412134_0_0" index="0" disallow="tram rail_urban rail rail_electric ship" speed="13.89" length="4.82" shape="599.77,615.08 599.64,613.60 600.03,612.76 600.93,612.57 602.35,613.02"/>
    </edge>
    <edge id=":257412140_0" function="internal">
        <lane id=":257412140_0_0" index="0" disallow="tram rail_urban rail rail_electric ship" speed="13.89" length="4.82" shape="568.37,752.99 566.89,752.87 566.13,752.35 566.09,751.43 566.77,750.11"/>
    </edge>
    <edge id=":28795771_0" function="internal">
        <lane id=":28795771_0_0" index="0" disallow="tram rail_urban rail rail_electric ship" speed="13.89" length="5.23" shape="756.64,654.72 756.07,653.36 755.21,652.60 754.08,652.44 752.68,652.86"/>
    </edge>
    <edge id=":28795771_1" function="internal">
        <lane id=":28795771_1_0" index="0" disallow="tram rail_urban rail rail_electric ship" speed="13.89" length="9.98" shape="756.64,654.72 755.87,651.86 755.22,649.93 754.32,648.11 752.83,645.55"/>
    </edge>
    <edge id=":28795771_2" function="internal">
        <lane id=":28795771_2_0" index="0" disallow="tram rail_urban rail rail_electric ship" speed="13.89" length="5.68" shape="756.64,654.72 756.23,651.73 756.65,649.10"/>
    </edge>
    <edge id=":28795771_3" function="internal">
        <lane id=":28795771_3_0" index="0" disallow="tram rail_urban rail rail_electric ship" speed="13.89" length="2.41" shape="756.64,654.72 757.12,653.31 757.82,652.70"/>
    </edge>
    <edge id=":28795771_16" function="internal">
        <lane id=":28795771_16_0" index="0" speed="13.89" length="5.43" shape="756.65,649.10 757.92,646.84 760.02,644.94"/>
    </edge>
    <edge id=":28795771_17" function="internal">
        <lane id=":28795771_17_0" index="0" speed="13.89" length="2.41" shape="757.82,652.70 758.72,652.89 759.83,653.88"/>
    </edge>
    <edge id=":28795771_4" function="internal">
        <lane id=":28795771_4_0" index="0" disallow="tram rail_urban rail rail_electric ship" speed="13.89" length="7.02" shape="761.88,647.67 760.58,648.85 759.80,650.28 759.56,651.95 759.83,653.88"/>
    </edge>
    <edge id=":28795771_5" function="internal">
        <lane id=":28795771_5_0" index="0" disallow="tram rail_urban rail rail_electric ship" speed="13.89" length="10.59" shape="761.88,647.67 759.33,649.37 757.42,650.52 755.44,651.55 752.68,652.86"/>
    </edge>
    <edge id=":28795771_6" function="internal">
        <lane id=":28795771_6_0" index="0" disallow="tram rail_urban rail rail_electric ship" speed="13.89" length="5.45" shape="761.88,647.67 759.24,648.95 756.85,649.02 756.74,648.96"/>
    </edge>
    <edge id=":28795771_7" function="internal">
        <lane id=":28795771_7_0" index="0" disallow="tram rail_urban rail rail_electric ship" speed="13.89" length="2.41" shape="761.88,647.67 760.39,647.68 759.59,647.23"/>
    </edge>
    <edge id=":28795771_18" function="internal">
        <lane id=":28795771_18_0" index="0" speed="13.89" length="5.29" shape="756.74,648.96 754.71,647.89 752.83,645.55"/>
    </edge>
    <edge id=":28795771_19" function="internal">
        <lane id=":28795771_19_0" index="0" speed="13.89" length="2.41" shape="759.59,647.23 759.46,646.31 760.02,644.94"/>
    </edge>
    <edge id=":28795771_8" function="internal">
        <lane id=":28795771_8_0" index="0" disallow="tram rail_urban rail rail_electric ship" speed="13.89" length="5.19" shape="755.66,643.86 756.58,645.01 757.61,645.57 758.76,645.54 760.02,644.94"/>
    </edge>
    <edge id=":28795771_9" function="internal">
        <lane id=":28795771_9_0" index="0" disallow="tram rail_urban rail rail_electric ship" speed="13.89" length="10.90" shape="755.66,643.86 757.22,646.56 758.23,648.67 759.00,650.87 759.83,653.88"/>
    </edge>
    <edge id=":28795771_10" function="internal">
        <lane id=":28795771_10_0" index="0" disallow="tram rail_urban rail rail_electric ship" speed="13.89" length="5.56" shape="755.66,643.86 756.81,646.65 756.69,649.08 756.63,649.18"/>
    </edge>
    <edge id=":28795771_11" function="internal">
        <lane id=":28795771_11_0" index="0" disallow="tram rail_urban rail rail_electric ship" speed="13.89" length="2.41" shape="755.66,643.86 755.59,645.35 755.09,646.12"/>
    </edge>
    <edge id=":28795771_20" function="internal">
        <lane id=":28795771_20_0" index="0" speed="13.89" length="5.52" shape="756.63,649.18 755.31,651.15 752.68,652.86"/>
    </edge>
    <edge id=":28795771_21" function="internal">
        <lane id=":28795771_21_0" index="0" speed="13.89" length="2.41" shape="755.09,646.12 754.17,646.19 752.83,645.55"/>
    </edge>
    <edge id=":28795771_12" function="internal">
        <lane id=":28795771_12_0" index="0" disallow="tram rail_urban rail rail_electric ship" speed="13.89" length="5.36" shape="751.27,649.88 752.58,649.04 753.28,648.04 753.36,646.88 752.83,645.55"/>
    </edge>
    <edge id=":28795771_13" function="internal">
        <lane id=":28795771_13_0" index="0" disallow="tram rail_urban rail rail_electric ship" speed="13.89" length="10.07" shape="751.27,649.88 753.97,648.60 755.80,647.66 757.55,646.60 760.02,644.94"/>
    </edge>
    <edge id=":28795771_14" function="internal">
        <lane id=":28795771_14_0" index="0" disallow="tram rail_urban rail rail_electric ship" speed="13.89" length="5.27" shape="751.27,649.88 754.31,648.95 756.39,649.26"/>
    </edge>
    <edge id=":28795771_15" function="internal">
        <lane id=":28795771_15_0" index="0" disallow="tram rail_urban rail rail_electric ship" speed="13.89" length="2.41" shape="751.27,649.88 752.75,650.10 753.47,650.67"/>
    </edge>
    <edge id=":28795771_22" function="internal">
        <lane id=":28795771_22_0" index="0" speed="13.89" length="6.01" shape="756.39,649.26 756.75,649.31 758.59,650.95 759.83,653.88"/>
    </edge>
    <edge id=":28795771_23" function="internal">
        <lane id=":28795771_23_0" index="0" speed="13.89" length="2.41" shape="753.47,650.67 753.45,651.59 752.68,652.86"/>
    </edge>
    <edge id=":28795772_0" function="internal">
        <lane id=":28795772_0_0" index="0" disallow="tram rail_urban rail rail_electric ship" speed="13.89" length="4.82" shape="769.34,517.48 770.82,517.33 771.66,517.70 771.87,518.60 771.44,520.02"/>
    </edge>
    <edge id=":cluster_254108781_257412131_0" function="internal">
        <lane id=":cluster_254108781_257412131_0_0" index="0" disallow="tram rail_urban rail rail_electric ship" speed="13.89" length="10.50" shape="672.47,698.67 671.46,697.56 669.55,697.43 666.73,698.28 663.02,700.12"/>
    </edge>
    <edge id=":cluster_254108781_257412131_1" function="internal">
        <lane id=":cluster_254108781_257412131_1_0" index="0" disallow="tram rail_urban rail rail_electric ship" speed="13.89" length="12.15" shape="672.47,698.67 670.62,696.33 667.91,695.50 664.93,694.81 662.25,692.94"/>
    </edge>
    <edge id=":cluster_254108781_257412131_2" function="internal">
        <lane id=":cluster_254108781_257412131_2_0" index="0" disallow="tram rail_urban rail rail_electric ship" speed="13.89" length="9.88" shape="672.47,698.67 671.88,695.97 672.14,693.65 673.25,691.69 675.21,690.10"/>
    </edge>
    <edge id=":cluster_254108781_257412131_3" function="internal">
        <lane id=":cluster_254108781_257412131_3_0" index="0" disallow="tram rail_urban rail rail_electric ship" speed="13.89" length="4.82" shape="672.47,698.67 672.84,697.23 673.48,696.57 674.40,696.68 675.59,697.58"/>
    </edge>
    <edge id=":cluster_254108781_257412131_4" function="internal">
        <lane id=":cluster_254108781_257412131_4_0" index="0" disallow="tram rail_urban rail rail_electric ship" speed="13.89" length="5.27" shape="676.89,692.94 675.89,693.77 675.35,694.82 675.24,696.08 675.59,697.58"/>
    </edge>
    <edge id=":cluster_254108781_257412131_5" function="internal">
        <lane id=":cluster_254108781_257412131_5_0" index="0" disallow="tram rail_urban rail rail_electric ship" speed="13.89" length="15.61" shape="676.89,692.94 663.02,700.12"/>
    </edge>
    <edge id=":cluster_254108781_257412131_6" function="internal">
        <lane id=":cluster_254108781_257412131_6_0" index="0" disallow="tram rail_urban rail rail_electric ship" speed="13.89" length="9.70" shape="676.89,692.94 672.24,695.14 668.26,695.87 667.76,695.76"/>
    </edge>
    <edge id=":cluster_254108781_257412131_7" function="internal">
        <lane id=":cluster_254108781_257412131_7_0" index="0" disallow="tram rail_urban rail rail_electric ship" speed="13.89" length="2.56" shape="676.89,692.94 675.40,692.86 674.63,692.36 674.62,692.21"/>
    </edge>
    <edge id=":cluster_254108781_257412131_16" function="internal">
        <lane id=":cluster_254108781_257412131_16_0" index="0" speed="13.89" length="6.36" shape="667.76,695.76 664.93,695.13 662.25,692.94"/>
    </edge>
    <edge id=":cluster_254108781_257412131_17" function="internal">
        <lane id=":cluster_254108781_257412131_17_0" index="0" speed="13.89" length="2.26" shape="674.62,692.21 674.56,691.44 675.21,690.10"/>
    </edge>
    <edge id=":cluster_254108781_257412131_8" function="internal">
        <lane id=":cluster_254108781_257412131_8_0" index="0" disallow="tram rail_urban rail rail_electric ship" speed="13.89" length="11.33" shape="664.82,690.87 666.56,692.18 668.88,692.49 671.76,691.80 675.21,690.10"/>
    </edge>
    <edge id=":cluster_254108781_257412131_9" function="internal">
        <lane id=":cluster_254108781_257412131_9_0" index="0" disallow="tram rail_urban rail rail_electric ship" speed="13.89" length="13.03" shape="664.82,690.87 667.59,692.90 670.75,693.92 673.64,695.09 675.59,697.58"/>
    </edge>
    <edge id=":cluster_254108781_257412131_10" function="internal">
        <lane id=":cluster_254108781_257412131_10_0" index="0" disallow="tram rail_urban rail rail_electric ship" speed="13.89" length="11.21" shape="664.82,690.87 666.42,693.58 666.65,696.03 665.52,698.20 663.02,700.12"/>
    </edge>
    <edge id=":cluster_254108781_257412131_11" function="internal">
        <lane id=":cluster_254108781_257412131_11_0" index="0" disallow="tram rail_urban rail rail_electric ship" speed="13.89" length="4.82" shape="664.82,690.87 664.95,692.35 664.57,693.19 663.67,693.38 662.25,692.94"/>
    </edge>
    <edge id=":cluster_254108781_257412131_12" function="internal">
        <lane id=":cluster_254108781_257412131_12_0" index="0" disallow="tram rail_urban rail rail_electric ship" speed="13.89" length="5.21" shape="661.41,697.24 662.57,696.35 663.10,695.33 662.99,694.20 662.25,692.94"/>
    </edge>
    <edge id=":cluster_254108781_257412131_13" function="internal">
        <lane id=":cluster_254108781_257412131_13_0" index="0" disallow="tram rail_urban rail rail_electric ship" speed="13.89" length="15.54" shape="661.41,697.24 675.21,690.10"/>
    </edge>
    <edge id=":cluster_254108781_257412131_14" function="internal">
        <lane id=":cluster_254108781_257412131_14_0" index="0" disallow="tram rail_urban rail rail_electric ship" speed="13.89" length="10.32" shape="661.41,697.24 666.70,694.80 670.83,694.04 671.11,694.13"/>
    </edge>
    <edge id=":cluster_254108781_257412131_15" function="internal">
        <lane id=":cluster_254108781_257412131_15_0" index="0" disallow="tram rail_urban rail rail_electric ship" speed="13.89" length="2.52" shape="661.41,697.24 662.89,697.35 663.66,697.87 663.66,697.98"/>
    </edge>
    <edge id=":cluster_254108781_257412131_18" function="internal">
        <lane id=":cluster_254108781_257412131_18_0" index="0" speed="13.89" length="5.97" shape="671.11,694.13 673.79,694.97 675.59,697.58"/>