[General]
cmdenv-express-mode = true
cmdenv-autoflush = true
cmdenv-status-frequency = 1s
**.cmdenv-log-level = info

ned-path = .
image-path = ../../images

network = DefaultScenario

##########################################################
#            Simulation parameters                       #
##########################################################
debug-on-errors = true
print-undisposed = true

sim-time-limit = 300s

**.scalar-recording = true
**.vector-recording = true

*.playgroundSizeX = 2500m
*.playgroundSizeY = 2500m
*.playgroundSizeZ = 50m


##########################################################
#                 Annotation parameters                  #
##########################################################
*.annotations.draw = true


##########################################################
#                  Obstacle parameters                   #
##########################################################
*.obstacles.obstacles = xmldoc("config.xml", "//AnalogueModel[@type='SimpleObstacleShadowing']/obstacles")


##########################################################
#            TraCIScenarioManager parameters             #
##########################################################
*.manager.updateInterval = 1s
*.manager.host = "localhost"
*.manager.port = 9999
*.manager.autoShutdown = true
*.manager.launchConfig = xmldoc("default.launchd.xml")


##########################################################
#                      RSU SETTINGS                      #
##########################################################
*.rsu[*].applType = "A2TRoadsideUnit11p"
*.rsu[*].appl.headerLength = 80 bit
*.rsu[*].appl.sendBeacons = false
*.rsu[*].appl.dataOnSch = false
*.rsu[*].appl.beaconInterval = 1s
*.rsu[*].appl.beaconUserPriority = 7
*.rsu[*].appl.dataUserPriority = 5
*.rsu[*].nic.phy80211p.antennaOffsetZ = 0 m

*.rsu[0].mobility.x = 211
*.rsu[0].mobility.y = 143
*.rsu[0].mobility.z = 3

*.rsu[1].mobility.x = 281
*.rsu[1].mobility.y = 205
*.rsu[1].mobility.z = 3

*.rsu[2].mobility.x = 256
*.rsu[2].mobility.y = 297
*.rsu[2].mobility.z = 3

*.rsu[3].mobility.x = 214
*.rsu[3].mobility.y = 277
*.rsu[3].mobility.z = 3

*.rsu[4].mobility.x = 169
*.rsu[4].mobility.y = 251
*.rsu[4].mobility.z = 3


##########################################################
#               11p specific parameters                  #
#                    NIC-Settings                        #
##########################################################
*.connectionManager.sendDirect = true
*.connectionManager.maxInterfDist = 2600m
*.connectionManager.drawMaxIntfDist = false

*.**.nic.mac1609_4.useServiceChannel = false

*.**.nic.mac1609_4.txPower = 20mW
*.**.nic.mac1609_4.bitrate = 6Mbps
*.**.nic.phy80211p.minPowerLevel = -110dBm

*.**.nic.phy80211p.useNoiseFloor = true
*.**.nic.phy80211p.noiseFloor = -98dBm

*.**.nic.phy80211p.decider = xmldoc("config.xml")
*.**.nic.phy80211p.analogueModels = xmldoc("config.xml")
*.**.nic.phy80211p.usePropagationDelay = true

*.**.nic.phy80211p.antenna = xmldoc("antenna.xml", "/root/Antenna[@id='monopole']")
*.node[*].nic.phy80211p.antennaOffsetY = 0 m
*.node[*].nic.phy80211p.antennaOffsetZ = 1.895 m


##########################################################
#                      App Layer                         #
##########################################################
*.node[*].applType = "A2TVehicle11p"
*.node[*].appl.headerLength = 80 bit
*.node[*].appl.sendBeacons = false
*.node[*].appl.dataOnSch = false
*.node[*].appl.beaconInterval = 1s


##########################################################
#                      Mobility                          #
##########################################################
*.node[*].veinsmobility.x = 0
*.node[*].veinsmobility.y = 0
*.node[*].veinsmobility.z = 0
*.node[*].veinsmobility.setHostSpeed = false
#*.node[*0].veinsmobility.accidentCount = 1
#*.node[*0].veinsmobility.accidentStart = 75s
#*.node[*0].veinsmobility.accidentDuration = 50s

##########################################################
#                 Simulation Parameters                  #
##########################################################

# ---------- Node
# 	bool a2t;					// Enable or disable A2T communications
# 	int broadcastInterval;		// [AMU] Interval between messages broadcast (in seconds)
# 	int maxHop;					// Maximum number of hops of a message
# 	int warningDistance;		// [A2V] Distance before which a vehicle will react when an ambulance approaches (in meters)
# 	double minForwardDistance;	// Minimum distance from which a vehicle is selected to forward the message (in meters)
# 	double laneChangeDuration;	// [A2V] Duration for which a vehicle changes lanes (in seconds)

# ---------- RSU
# 	int reinitializationDelay;	// Time after which the RSU resets if it has not been updated (in seconds)

*.node[*].appl.a2t = true
*.node[*].appl.broadcastInterval = 1
*.node[*].appl.maxHop = 2
*.node[*].appl.minForwardDistance = 100
*.node[*].appl.warningDistance = 200
*.node[*].appl.laneChangeDuration = 6

*.rsu[*].appl.reinitializationDelay = 3


[Config NoA2T]
*.node[*].appl.a2t = false
